lehigh_full_1.dss
clear
set defaultbasefrequency=60
new object=circuit.lehigh basekv=115 pu=1.0001 phases=3 bus1=sourcebus angle=30 mvasc3=20000 mvasc1=21000
edit object=vsource.source basekv=115 bus1=sourcebus.1.2.3 pu=1.00 r1=0 x1=0.0001 r0=0 x0=0.0001
new object=vsource.secondsource basekv=4.16 bus1=680.1.2.3 pu=1.00 r1=0 x1=0.0001 r0=0 x0=0.0001
new object=transformer.sub phases=3 windings=2 xhl=0.008 buses=[sourcebus.1.2.3,650.1.2.3] conns=[delta,wye] kvs=[115,4.16] kvas=[5000,5000] %rs=[0.0005,0.0005]
new object=transformer.reg1 phases=1 bank=reg1 xhl=0.01 kvas=[1666,1666] buses=[650.1,rg60.1] kvs=[2.4,2.4] %loadloss=0.01
new object=regcontrol.reg1 transformer=reg1 winding=2 vreg=121 band=2 ptratio=20 ctprim=700 r=3 x=9
new object=transformer.reg2 phases=1 bank=reg1 xhl=0.01 kvas=[1666,1666] buses=[650.2,rg60.2] kvs=[2.4,2.4] %loadloss=0.01
new object=regcontrol.reg2 transformer=reg2 winding=2 vreg=121 band=2 ptratio=20 ctprim=700 r=3 x=9
new object=transformer.reg3 phases=1 bank=reg1 xhl=0.01 kvas=[1666,1666] buses=[650.3,rg60.3] kvs=[2.4,2.4] %loadloss=0.01
new object=regcontrol.reg3 transformer=reg3 winding=2 vreg=121 band=2 ptratio=20 ctprim=700 r=3 x=9
new object=transformer.xfm1 phases=3 windings=2 xhl=2 buses=[633.1.2.3,634.1.2.3] conns=[wye,wye] kvs=[4.16,0.480] kvas=[500,500] %rs=[0.55,0.55] xht=1 xlt=1
new object=linecode.mtx601 nphases=3 basefreq=60 rmatrix=[0.3465|0.1560,0.3375|0.1580,0.1535,0.3414] xmatrix=[1.0179|0.5017,1.0478|0.4236,0.3849,1.0348] units=mi
new object=linecode.mtx602 nphases=3 basefreq=60 rmatrix=[0.7526|0.1580,0.7475|0.1560,0.1535,0.7436] xmatrix=[1.1814|0.4236,1.1983|0.5017,0.3849,1.2112] units=mi
new object=linecode.mtx603 nphases=2 basefreq=60 rmatrix=[1.3238|0.2066,1.3294] xmatrix=[1.3569|0.4591,1.3471] units=mi
new object=linecode.mtx604 nphases=2 basefreq=60 rmatrix=[1.3238|0.2066,1.3294] xmatrix=[1.3569|0.4591,1.3471] units=mi
new object=linecode.mtx605 nphases=1 basefreq=60 rmatrix=[1.3292] xmatrix=[1.3475] units=mi
new object=linecode.mtx606 nphases=3 units=mi rmatrix=[0.791721|0.318476,0.781649|0.28345,0.318476,0.791721] xmatrix=[0.438352|0.0276838,0.396697|-0.0184204,0.0276838,0.438352] cmatrix=[383.948|0,383.948|0,0,383.948]
new object=linecode.mtx607 nphases=1 basefreq=60 rmatrix=[1.3425] xmatrix=[0.5124] cmatrix=[236] units=mi
new object=loadshape.solar_634_shape npts=8760 interval=1 useactual=yes mult=[0.0,0.0,0.0,0.0,0.0,0.0,0.0,0.0,2.4533563278850763,7.4381420045661875,10.49969680399218,32.26439878979507,7.398944850034759,17.290121894334124,25.866587821071192,27.848614430123448,13.914668570504816,0.9224182840961308,0.0,0.0,0.0,0.0,0.0,0.0,0.0,0.0,0.0,0.0,0.0,0.0,0.0,0.0,6.437329411407203,16.34810503297228,22.88342733070805,0.902819706830417,49.1230306961316,17.564823264206016,63.783409067189226,43.8632223614267,23.158128700579937,1.982347897204154,0.0,0.0,0.0,0.0,0.0,0.0,0.0,0.0,0.0,0.0,0.0,0.0,0.0,0.0,18.87985566992021,44.02033226770431,58.4844035779529,24.787059630697456,44.079127999501445,43.96153653590717,35.914874771648165,31.18519188757323,16.367703610237996,1.2954338284484843,0.0,0.0,0.0,0.0,0.0,0.0,0.0,0.0,0.0,0.0,0.0,0.0,0.0,0.0,28.731835559688157,65.82455269619052,93.4572614882392,110.70818622804192,117.28270568030912,114.1816324381998,100.4439936393902,76.99124370352077,41.9595900614373,8.242647536916138,0.0,0.0,0.0,0.0,0.0,0.0,0.0,0.0,0.0,0.0,0.0,0.0,0.0,0.0,31.24398761937037,69.71021160523217,98.0889514859856,115.28108049399115,121.56097871096884,117.2631071030434,102.54393300018864,78.16876478022306,42.35220418305536,8.046661764259003,0.0,0.0,0.0,0.0,0.0,0.0,0.0,0.0,0.0,0.0,0.0,0.0,0.0,0.0,24.689066744368883,58.46480500068718,91.65162207457836,82.13313928647948,92.8487417285464,95.7731064871124,96.14612203146476,72.9484748882015,39.4866351562865,7.379346272769045,0.0,0.0,0.0,0.0,0.0,0.0,0.0,0.0,0.0,0.0,0.0,0.0,0.0,0.0,25.06208228872124,24.88537380517792,88.92356437682142,101.99420897229297,91.33772355017506,87.45174335298151,73.71378326602,37.68131703077757,19.900266840344912,2.11953793806415,0.0,0.0,0.0,0.0,0.0,0.0,0.0,0.0,0.0,0.0,0.0,0.0,0.0,0.0,25.51317085398455,59.48553745926378,15.700388118748036,20.68549508358105,46.296980112046064,53.63680794213179,43.94161667048955,28.476732767081977,15.111788224472834,1.746522393711796,0.0,0.0,0.0,0.0,0.0,0.0,0.0,0.0,0.0,0.0,0.0,0.0,0.0,0.0,26.21968350000593,60.19172881713328,32.26439878979507,68.63068341485844,53.75472069387797,25.101279443252665,32.186004480732215,26.92619614602732,13.953865725036245,6.594118029532911,0.0,0.0,0.0,0.0,0.0,0.0,0.0,0.0,0.0,0.0,0.0,0.0,0.0,0.0,12.148226311375408,30.02726938813664,48.377320895578784,82.91836752971561,48.12189681482072,62.84139220582738,63.82260622172065,51.49767142680192,28.731835559688157,5.043902696630148,0.0,0.0,0.0,0.0,0.0,0.0,0.0,0.0,0.0,0.0,0.0,0.0,0.0,0.0,31.63660174098844,70.02411012963549,98.01023588877082,114.86886779510736,121.0703717030222,117.28270568030912,103.58394274787904,80.64171968537386,47.86679402221454,11.795130632440667,0.0,0.0,0.0,0.0,0.0,0.0,0.0,0.0,0.0,0.0,0.0,0.0,0.0,0.0,29.222442567634783,66.37395543593429,93.1433629638359,112.94563691785226,119.85365347178848,117.18471279398057,103.83904554048524,78.62017463363827,46.748389965461264,11.618422148897343,0.0,0.0,0.0,0.0,0.0,0.0,0.0,0.0,0.0,0.0,0.0,0.0,0.0,0.0,28.594645518828155,65.62824563538149,92.4169304523969,85.25381110585451,94.63478256494152,86.05831663820445,77.65855919501072,61.95817107626267,36.758898746681446,8.890364451140382,0.0,0.0,0.0,0.0,0.0,0.0,0.0,0.0,0.0,0.0,0.0,0.0,0.0,0.0,11.91272209603495,28.221629974475803,51.144254459715285,65.19643435923199,74.69499728191329,68.55228910579558,40.54656476939453,33.01042987849978,18.62475287731404,3.0419562221602807,0.0,0.0,0.0,0.0,0.0,0.0,0.0,0.0,0.0,0.0,0.0,0.0,0.0,0.0,6.280219505129595,16.858310618184632,78.30627610923496,97.61794305530468,112.7493298570432,111.8465101502128,99.91418947691214,78.01197616209735,45.4725547142785,11.500509397151168,0.0,0.0,0.0,0.0,0.0,0.0,0.0,0.0,0.0,0.0,0.0,0.0,0.0,0.0,26.00409915008309,60.42723303247373,85.2342125285888,72.0851736240544,84.72368565522454,110.31557210642384,66.6682553830719,30.459080664286127,17.054617678993665,3.081153376691708,0.0,0.0,0.0,0.0,0.0,0.0,0.0,0.0,0.0,0.0,0.0,0.0,0.0,0.0,26.88699899149589,64.66630890860202,94.39927834960106,115.0455762786507,119.42184219563896,116.36028739621298,103.32883995527288,81.30903517686382,47.61169122960836,12.403329103981584,0.0,0.0,0.0,0.0,0.0,0.0,0.0,0.0,0.0,0.0,0.0,0.0,0.0,0.0,29.359953896646683,66.13845122059384,95.69439088989763,113.3379297513184,120.40337749968415,117.3810198547896,105.35038500700844,82.48655625356612,48.45571520464164,12.79594322559965,0.0,0.0,0.0,0.0,0.0,0.0,0.0,0.0,0.0,0.0,0.0,0.0,0.0,0.0,30.969286249498484,69.4355102353603,97.3824388399642,114.02484382007408,124.91715474568431,121.71808861724644,108.176435591094,82.7416590461723,50.908750244374815,13.953865725036245,0.0,0.0,0.0,0.0,0.0,0.0,0.0,0.0,0.0,0.0,0.0,0.0,0.0,0.0,30.39996364433709,67.80657930524278,94.81149104848484,111.02208475244522,117.08639861950007,113.57343396665888,101.24849917174014,79.836892864872,48.377320895578784,13.011848863674398,0.0,0.0,0.0,0.0,0.0,0.0,0.0,0.0,0.0,0.0,0.0,0.0,0.0,0.0,7.830756126184255,19.605966893207317,29.69345099831571,16.956624792665096,49.16222785066302,13.109841750002968,13.679164355164351,0.1963070608090337,0.0,0.0,0.0,0.0,0.0,0.0,0.0,0.0,0.0,0.0,0.0,0.0,0.0,0.0,0.0,0.0,7.222236366491439,21.215299246059107,59.95654588994471,64.0385118597954,120.8939845076308,118.2835182734681,55.89385720920783,48.49491235917306,28.20203139721009,6.260620927863882,0.0,0.0,0.0,0.0,0.0,0.0,0.0,0.0,0.0,0.0,0.0,0.0,0.0,0.0,8.164253227853285,21.17610209152768,24.61067243530603,61.2516584302413,129.23462493087547,127.0562912610142,113.39672548311556,89.51248555924852,54.00982348648414,15.30809528528187,0.0,0.0,0.0,0.0,0.0,0.0,0.0,0.0,0.0,0.0,0.0,0.0,0.0,0.0,32.38231154154125,71.29994538081827,99.36446544901646,116.18357891266966,123.18990964108636,120.20707043887514,107.66623000588164,85.35180399218308,53.46009945858847,15.661190964216612,0.0,0.0,0.0,0.0,0.0,0.0,0.0,0.0,0.0,0.0,0.0,0.0,0.0,0.0,30.851373497752306,68.14007640691182,94.79157118306723,111.10080034966,117.79291126552148,114.57424655981788,102.87743010185766,82.09394213194804,51.32096294325861,15.131386801738548,0.0,0.0,0.0,0.0,0.0,0.0,0.0,0.0,0.0,0.0,0.0,0.0,0.0,0.0,20.469589445506298,46.92477716085269,54.088217795547,80.28830271828723,89.88550110360089,86.13703223541921,78.42386757282925,57.67957675745106,35.32627487737296,10.087484105108398,0.0,0.0,0.0,0.0,0.0,0.0,0.0,0.0,0.0,0.0,0.0,0.0,0.0,0.0,24.33564977728225,56.85547264783539,55.08903038870598,102.32802736211389,107.96052995301925,78.32587468650067,10.872712348344535,76.14754101663938,44.981947706331866,12.65843189658776,0.0,0.0,0.0,0.0,0.0,0.0,0.0,0.0,0.0,0.0,0.0,0.0,0.0,0.0,6.888739264822409,11.088617986419283,16.721120577324637,25.846989243805474,20.41079371370916,14.169771363110993,14.366078423920024,5.573706859108212,2.86524773861696,0.058795731797141,0.0,0.0,0.0,0.0,0.0,0.0,0.0,0.0,0.0,0.0,0.0,0.0,0.0,0.0,32.42150869607268,70.65222846659401,98.36365285585748,115.496664843914,122.48339699506496,119.7556605854599,108.3531440746373,87.07904909678105,53.59761078760035,16.97622336993081,0.0,0.0,0.0,0.0,0.0,0.0,0.0,0.0,0.0,0.0,0.0,0.0,0.0,0.0,30.792577765955155,68.08128067511467,95.26290090190004,111.5914073576066,118.42102960248,115.98727185186064,104.44756530017804,67.04127092742424,44.60893216197951,16.858310618184632,0.0,0.0,0.0,0.0,0.0,0.0,0.0,0.0,0.0,0.0,0.0,0.0,0.0,0.0,9.61647567442748,29.497465225658573,50.221836175619146,50.83035593531197,65.39242013188912,61.76186401545364,55.75634588019594,40.11475349324503,24.61067243530603,7.065126460213833,0.0,0.0,0.0,0.0,0.0,0.0,0.0,0.0,0.0,0.0,0.0,0.0,0.0,0.0,32.40191011880696,71.2212297836035,100.93460064733684,118.24432111893668,125.54527308264284,123.36661812462968,110.80617911437048,89.3161784984395,55.61915583933594,18.565957145516897,0.0,0.0,0.0,0.0,0.0,0.0,0.0,0.0,0.0,0.0,0.0,0.0,0.0,0.0,32.51950158240124,69.33719606087983,96.1853191859962,112.7101327025118,119.44144077290468,117.59660420471243,106.48870892917932,86.19582796721635,55.59923597391832,18.91905282445164,0.0,0.0,0.0,0.0,0.0,0.0,0.0,0.0,0.0,0.0,0.0,0.0,0.0,0.0,32.28399736706078,28.00572433640105,65.68704136717862,81.62293370126713,93.1433629638359,91.23940937569462,78.60057605637255,22.510733074507595,16.269710723909427,10.735201019332642,0.0,0.0,0.0,0.0,0.0,0.0,0.0,0.0,0.0,0.0,0.0,0.0,0.0,0.0,0.0,24.944169536975064,67.2568552773471,94.32088404053822,122.89560969394876,122.7976168076202,112.51382564170277,91.49451216830076,57.73869377740009,20.312479539228693,0.0,0.0,0.0,0.0,0.0,0.0,0.0,0.0,0.0,0.0,0.0,0.0,0.0,0.0,23.315238606857545,62.17375542618552,93.005851634824,124.23024067692867,104.97736946265609,118.0088169035962,115.85008181100063,89.98349398992946,34.77655084947728,16.91742763813367,0.0,0.0,0.0,0.0,0.0,0.0,0.0,0.0,0.0,0.0,0.0,0.0,0.0,0.0,17.15293185347413,22.76583586711377,17.15293185347413,25.846989243805474,17.113413410790805,71.45705528709587,65.07852160748581,47.23899697340791,16.406900764769425,2.257049267076043,0.0,0.0,0.0,0.0,0.0,0.0,0.0,0.0,0.0,0.0,0.0,0.0,0.0,0.0,1.275513963030874,8.242647536916138,12.89393611192822,46.13987020576846,55.54044024212119,25.866587821071192,37.46541139270282,16.32850645570657,9.911096909716976,18.663950031845467,0.0,0.0,0.0,0.0,0.0,0.0,0.0,0.0,0.0,0.0,0.0,0.0,0.0,0.0,8.125056073321856,7.732441951703789,29.98807223360521,58.73950637055907,53.87231215747224,67.394366606359,73.65466624607097,88.82557149049285,57.42447396484487,20.606779486366296,0.0,0.0,0.0,0.0,0.0,0.0,0.0,0.0,0.0,0.0,0.0,0.0,0.0,0.0,6.515723720470057,16.544412093781315,30.94968767223277,115.26116062857356,43.25502388988578,43.01951967454532,48.828409460842096,36.73930016941573,0.902819706830417,19.154557039792103,0.0,0.0,0.0,0.0,0.0,0.0,0.0,0.0,0.0,0.0,0.0,0.0,0.0,0.0,10.421302494929328,46.31657868931177,100.11017524956924,119.50055779285374,126.15347155418378,125.54527308264284,114.08363955187122,92.86834030581213,60.113334508070416,22.667521692633308,0.0,0.0,0.0,0.0,0.0,0.0,0.0,0.0,0.0,0.0,0.0,0.0,0.0,3.3166575920321697,38.21112119325564,76.26513248023366,104.48676245470946,121.03117454849075,127.95911096784462,125.2898490018848,113.9072523564798,93.10384452115258,62.17407671433742,23.8254441920699,0.0,0.0,0.0,0.0,0.0,0.0,0.0,0.0,0.0,0.0,0.0,0.0,0.0,3.37545332382931,36.83729305574429,73.49787762794527,100.01218236324073,116.18357891266966,123.11151533202349,121.24708018656553,114.02484382007408,90.3565095342818,59.99542175632424,23.0993329687828,0.0,0.0,0.0,0.0,0.0,0.0,0.0,0.0,0.0,0.0,0.0,0.0,0.0,4.258674453394014,38.72132677846798,76.28473105749937,106.19440898204172,119.04914793943853,125.5648716599086,105.48757504786846,100.0317809405064,76.67734517911744,60.54514578421991,13.070644595471538,0.0,0.0,0.0,0.0,0.0,0.0,0.0,0.0,0.0,0.0,0.0,0.0,0.0,0.0783943090628547,21.50959919319671,49.24062215972587,69.5926201416379,79.22869439333108,93.51605722003634,98.97217261555028,65.82423140803861,57.8954823955258,41.03717177734117,13.914668570504816,0.0,0.0,0.0,0.0,0.0,0.0,0.0,0.0,0.0,0.0,0.0,0.0,0.0,0.9420168613618444,34.658959385883,69.49430596715743,97.3824388399642,114.37826078716074,121.44338724737456,119.57895210191658,109.04005814339298,88.1386574217372,56.40406279442018,21.804220428486207,0.0,0.0,0.0,0.0,0.0,0.0,0.0,0.0,0.0,0.0,0.0,0.0,0.0,0.0,5.161494160224431,7.320229252820008,23.21724572052898,32.48030442786981,34.63936080861729,41.93999148417159,26.71061179610447,23.17772727784565,24.66946816710317,9.165065821012268,0.0,0.0,0.0,0.0,0.0,0.0,0.0,0.0,0.0,0.0,0.0,0.0,0.0,0.0,0.5690013170094905,25.317185081327416,45.040743438129006,58.30769509440958,88.17785457626862,100.75789216379351,78.83608027171302,97.5199501689761,36.79809590121287,12.599636164790615,0.0,0.0,0.0,0.0,0.0,0.0,0.0,0.0,0.0,0.0,0.0,0.0,0.0,4.141082989799731,12.854738957396792,27.711424389263453,48.8483293262597,67.61027224443374,130.76556297466442,126.25178572866425,115.02565641323308,94.53678967861296,63.783409067189226,25.7290764920593,0.0,0.0,0.0,0.0,0.0,0.0,0.0,0.0,0.0,0.0,0.0,0.0,0.0,5.299005489236323,39.31024796089508,76.0296282648932,102.3476259393796,118.42102960248,124.1322477906001,121.67889146271504,111.2771875450514,91.41611785923791,61.76186401545364,25.042162423303623,0.0,0.0,0.0,0.0,0.0,0.0,0.0,0.0,0.0,0.0,0.0,0.0,0.0,4.8279970585554,14.954678318195228,62.56636954780359,75.61741556600941,116.94920857864008,123.09191675475778,120.9135830848965,110.3942877036386,90.61161232688798,61.31045416203843,23.80584561480418,0.0,0.0,0.0,0.0,0.0,0.0,0.0,0.0,0.0,0.0,0.0,0.0,0.0,2.139136515329864,7.948347589778537,39.11394090008605,36.79809590121287,50.81075735804625,69.7494087597636,56.875071225101095,72.55586076658342,35.75776486537056,11.147413718216423,0.0195985772657136,0.0,0.0,0.0,0.0,0.0,0.0,0.0,0.0,0.0,0.0,0.0,0.0,0.0,0.0,1.0204111704246992,0.5102055852123496,6.142708176117703,39.84005212337316,27.65262865746631,63.80300764445493,69.21960459728554,45.82597168136515,5.024304119364435,23.550742822198007,0.0,0.0,0.0,0.0,0.0,0.0,0.0,0.0,0.0,0.0,0.0,0.0,0.0,7.084725037479546,44.393026523904766,84.03709287462078,112.57262137349989,130.35335027578066,136.849475418985,129.43093199168453,118.2639196962024,97.3824388399642,66.84496386661522,28.260827129007232,0.0,0.0,0.0,0.0,0.0,0.0,0.0,0.0,0.0,0.0,0.0,0.0,0.0,7.496937736363328,43.52972525975768,80.03319992568103,106.09609480756129,121.91439567805548,128.2338123377165,125.5648716599086,114.55464798255215,94.5955854104101,64.74502450581677,27.26001453584825,0.0,0.0,0.0,0.0,0.0,0.0,0.0,0.0,0.0,0.0,0.0,0.0,0.0,4.984785676681111,39.40824084722365,61.82065974725078,85.3910011467145,103.58426403603094,103.64305976782808,103.68225692235951,62.154478137071706,43.54932383702339,59.70112180918663,26.160887768208788,0.0,0.0,0.0,0.0,0.0,0.0,0.0,0.0,0.0,0.0,0.0,0.0,0.0,2.845649161351247,24.23765689095368,54.461233339899344,65.01972587568866,79.22869439333108,77.32506209334167,95.41968952002576,70.92692983646592,35.8168818853196,11.206209450013564,11.108216563684994,0.0,0.0,0.0,0.0,0.0,0.0,0.0,0.0,0.0,0.0,0.0,0.0,0.0,6.083912444320561,29.8309623273276,40.19314780230789,66.58986107400904,92.47604747234595,91.20053350931506,83.9191801228746,72.65417494106389,70.25961434497596,40.78206898473499,9.45968705630177,0.0,0.0,0.0,0.0,0.0,0.0,0.0,0.0,0.0,0.0,0.0,0.0,0.0,3.2382632829693145,17.957437385824083,47.33698985973648,48.8483293262597,61.13374567849511,74.40069733477569,86.39181373987348,76.26513248023366,67.5514765126366,48.98551936711971,15.209781110801403,0.0,0.0,0.0,0.0,0.0,0.0,0.0,0.0,0.0,0.0,0.0,0.0,0.0,8.753174410280385,44.23623790577905,79.32668727965965,104.44756530017804,118.617336663289,128.3909222439941,124.62285479854674,112.12121152008469,90.41530526607896,59.151719069442855,25.689879337527877,0.0,0.0,0.0,0.0,0.0,0.0,0.0,0.0,0.0,0.0,0.0,0.0,0.0,9.577278519896051,47.39578559153362,85.48931532119498,112.98483407238366,129.80394753603687,136.2804741019755,133.61121213601567,109.56986230587104,100.6011035456678,63.86180337625207,30.65506643694327,0.0,0.0,0.0,0.0,0.0,0.0,0.0,0.0,0.0,0.0,0.0,0.0,0.0,9.322175727289876,43.33341819894864,73.94928748136047,113.18114113319272,128.2338123377165,133.68960644507854,129.86274326783402,115.83048323373492,90.10108545352374,59.99542175632424,25.788193512008338,0.0,0.0,0.0,0.0,0.0,0.0,0.0,0.0,0.0,0.0,0.0,0.0,0.0,9.911096909716976,4.435382936937334,86.64691653247965,37.95601840064946,46.473367307437485,64.09730759159254,137.10457821159116,122.34620695420496,100.93460064733684,67.78698072797707,30.537474973348985,0.0,0.0,0.0,0.0,0.0,0.0,0.0,0.0,0.0,0.0,0.0,0.0,0.0,10.970705234673105,48.80881088357638,84.82199982970499,109.9820750047548,125.2898490018848,131.33456429167393,129.19542777634408,117.43981558658672,97.87304584791084,67.96368921152039,30.65506643694327,0.0,0.0,0.0,0.0,0.0,0.0,0.0,0.0,0.0,0.0,0.0,0.0,0.0,11.63802072616306,51.59566431313049,89.19826574669331,116.6941057860339,133.14020370533476,139.4596203649958,136.26055423655788,124.2890364087258,99.77667814790026,69.84772293424408,31.98969741992317,1.6289309301175143,0.0,0.0,0.0,0.0,0.0,0.0,0.0,0.0,0.0,0.0,0.0,0.0,11.775532055174953,50.339748927365335,87.47134193024723,113.1612212677751,127.93951239057893,128.74401792292886,126.09467582238663,114.55464798255215,93.77116001264254,65.45153715183817,29.477545360240967,1.1187253449051644,0.0,0.0,0.0,0.0,0.0,0.0,0.0,0.0,0.0,0.0,0.0,0.0,11.579224994365918,45.25664907620376,85.70522095926972,111.88570730474424,126.70319558207946,131.727178413292,129.9607361541626,112.6118185280313,92.69195311042068,64.15610332338967,28.771032714219583,1.0008125931589855,0.0,0.0,0.0,0.0,0.0,0.0,0.0,0.0,0.0,0.0,0.0,0.0,12.148226311375408,49.7116305904068,85.25381110585451,111.33630456500045,126.56568425306756,133.27771503434664,131.0010671900049,119.57895210191658,99.52157535529406,67.23725670008139,30.65506643694327,1.7664422591294069,0.0,0.0,0.0,0.0,0.0,0.0,0.0,0.0,0.0,0.0,0.0,0.0,11.04909954373596,42.72489843925582,85.2342125285888,99.16815838820744,125.19185611555622,129.9806560195802,126.87958277747089,115.33987622578827,94.37967977233536,48.33780245289546,29.497465225658573,1.4914196011056216,0.0,0.0,0.0,0.0,0.0,0.0,0.0,0.0,0.0,0.0,0.0,0.0,12.364131949450154,48.35740103016117,65.53025274905292,75.85291978134988,80.58292395357671,118.06761263539336,127.60569400075796,78.73808738538445,93.1433629638359,63.194487884762125,29.16364683583765,1.334630982979912,0.0,0.0,0.0,0.0,0.0,0.0,0.0,0.0,0.0,0.0,0.0,0.0,10.538893958523609,37.81850707163757,72.92887631093578,108.4707355382316,124.36775200594056,99.1485598109417,108.41193980643445,93.69276570357968,85.15549693137403,61.82065974725078,29.575859534721427,1.6681280846489417,0.0,0.0,0.0,0.0,0.0,0.0,0.0,0.0,0.0,0.0,0.0,0.0,9.224182840961308,32.93171428128502,33.030028455765496,18.781862783591645,50.57525314270579,68.59148626032702,127.54689826896085,116.10518460360682,96.44010069045044,67.29637372003043,30.262773603477093,2.178333669861291,0.0,0.0,0.0,0.0,0.0,0.0,0.0,0.0,0.0,0.0,0.0,0.0,14.26776424943956,51.791971373939525,86.45093075982253,83.82118723654604,126.17307013144948,130.80476012919587,128.8227335201436,117.93042259453335,98.20654294957988,68.92530465014794,31.499090411976542,2.5709477914793584,0.0,0.0,0.0,0.0,0.0,0.0,0.0,0.0,0.0,0.0,0.0,0.0,14.895882586398086,51.674379910345245,84.72400694337645,107.98012853028494,125.25065184735335,131.1186586535992,127.62529257802368,101.3468133462206,96.97022614108042,66.09925406606241,31.42069610291369,2.5513492142136447,0.0,0.0,0.0,0.0,0.0,0.0,0.0,0.0,0.0,0.0,0.0,0.0,14.699575525589056,50.71276447171769,74.14559454216952,80.30790129555292,102.97574427633812,114.7901521978926,102.6226485974034,99.79627672516597,85.15549693137403,41.84167730969112,20.05737674662252,1.0008125931589855,0.0,0.0,0.0,0.0,0.0,0.0,0.0,0.0,0.0,0.0,0.0,0.0,2.041143629001295,8.517670194939923,13.463258717089609,25.37598081312456,13.600448757949604,9.027875780152277,30.969286249498484,42.90160692279915,3.2578618602350287,24.276854045485106,11.52010797441688,0.0195985772657136,0.0,0.0,0.0,0.0,0.0,0.0,0.0,0.0,0.0,0.0,0.0,0.0,8.125056073321856,25.27766663864409,40.448571883065966,37.89722266885232,56.71796131882349,46.13987020576846,43.392213930745775,47.3761870142679,45.64926319782182,14.091055765896238,6.515723720470057,0.0,0.0,0.0,0.0,0.0,0.0,0.0,0.0,0.0,0.0,0.0,0.0,0.0,2.413837885201752,10.224995434120292,38.17192403872421,55.28533744951501,93.31975015922733,128.0767024314389,103.42715412975332,100.52238794845306,94.006664227983,41.03717177734117,19.704281067687777,1.1775210767023054,0.0,0.0,0.0,0.0,0.0,0.0,0.0,0.0,0.0,0.0,0.0,0.0,17.447231800611736,18.93865140171735,58.17050505354959,92.27974041153692,131.1186586535992,136.49637974005026,135.06343458258988,124.70124910760958,104.27085681663472,38.269916925052776,19.311666946069707,1.5897337755860868,0.0,0.0,0.0,0.0,0.0,0.0,0.0,0.0,0.0,0.0,0.0,0.0,20.80308654717533,62.978582246687374,99.75707957063452,125.95716449337476,140.40163722635762,145.3276271712416,142.835394976977,129.48972772348168,107.35201019332642,75.48022552514942,35.32627487737296,3.846461754510232,0.0,0.0,0.0,0.0,0.0,0.0,0.0,0.0,0.0,0.0,0.0,0.0,20.54798375456916,60.72153297961133,94.85068820301628,118.1463282326081,131.05986292180205,134.65122188370609,133.65040929054712,120.481771808747,99.38406402628218,70.08322714958453,34.05043962619019,3.670074559118809,0.0,0.0,0.0,0.0,0.0,0.0,0.0,0.0,0.0,0.0,0.0,0.0,20.29288096196298,59.01420774043096,91.8283305581217,119.2059365575642,133.2185980143976,73.63538895695716,136.45686129736694,123.81802797804488,103.44675270701906,71.12323689727495,34.85526644669204,4.376587205140193,0.0,0.0,0.0,0.0,0.0,0.0,0.0,0.0,0.0,0.0,0.0,0.0,19.998581014825376,57.97419799274056,91.2397306638465,114.81007206331022,61.68346970639079,105.01656661718752,106.94011878259454,80.44541262456481,51.37975867505575,39.97724216423314,19.723879644953488,1.864435145457975,0.0,0.0,0.0,0.0,0.0,0.0,0.0,0.0,0.0,0.0,0.0,0.0,2.217852112544615,4.906391367618256,5.3773997982991775,18.212540178430256,40.48776903759739,55.52084166485547,71.41753684441254,56.34526706262304,55.75634588019594,26.435589138080683,13.266951656280574,0.844023975033276,0.0,0.0,0.0,0.0,0.0,0.0,0.0,0.0,0.0,0.0,0.0,0.0,0.8636225522989897,3.709271713650237,13.8950699932391,21.568716213145752,22.334024590964276,23.864641346601324,16.406900764769425,18.52643870283357,15.955490911354214,8.71365596759706,4.023170238053552,0.0,0.0,0.0,0.0,0.0,0.0,0.0,0.0,0.0,0.0,0.0,0.0,0.0,0.3730155443523538,0.3534169670866401,6.221423773332454,10.480098226726469,18.585234434630717,13.345345965343428,15.935892334088502,9.577278519896051,19.54717116141017,16.190995126694673,7.830756126184255,0.1963070608090337,0.0,0.0,0.0,0.0,0.0,0.0,0.0,0.0,0.0,0.0,0.0,0.0,21.254496400590536,57.99379657000626,89.29657992117377,111.23799039051998,69.84772293424408,60.46643018700515,81.03433380699192,63.66549631544305,100.75789216379351,33.1868170738912,34.246746686999224,4.59249284321494,0.0,0.0,0.0,0.0,0.0,0.0,0.0,0.0,0.0,0.0,0.0,0.0,5.907203960777241,29.00653692956004,58.30769509440958,66.84496386661522,58.346892248941,63.64589773817733,74.81291003365946,64.21489905518682,86.11711237000159,49.29941789152303,25.27766663864409,3.512964652841202,0.0,0.0,0.0,0.0,0.0,0.0,0.0,0.0,0.0,0.0,0.0,0.0,23.550742822198007,61.48716264558176,84.09556731826602,98.57955849393224,115.2023648967764,120.56016611780986,115.75176763652016,105.33078642974274,85.9799223291416,50.63404887450293,25.788193512008338,3.768067445447378,0.0,0.0,0.0,0.0,0.0,0.0,0.0,0.0,0.0,0.0,0.0,0.0,22.785434444379483,52.81270383251612,66.6878539603376,75.02881567173421,78.69889023085302,87.53013766204437,105.76259770589222,89.84630394906945,51.89028554841999,28.6534412506253,14.228567094908133,1.511018178371335,0.0,0.0,0.0,0.0,0.0,0.0,0.0,0.0,0.0,0.0,0.0,0.0,11.245406604544993,27.35800742217681,43.29422104441721,116.2426959326187,128.46931655305696,134.12141772122803,130.45166445026112,119.7360620081942,99.65876539615408,68.67020185754177,16.42649934203514,4.8279970585554,0.0,0.0,0.0,0.0,0.0,0.0,0.0,0.0,0.0,0.0,0.0,0.0,23.648735708526576,59.053404894962384,54.73593470977123,76.36344665471412,97.99063731150513,128.27300949224792,124.17112365697962,113.22033828772412,94.57598683314438,67.2568552773471,19.5863683159416,2.806452006819819,0.0,0.0,0.0,0.0,0.0,0.0,0.0,0.0,0.0,0.0,0.0,0.0,4.023170238053552,20.430392290974872,35.6793705563077,38.87843668474559,57.26768534671916,82.62374629442611,90.55249530693892,87.90315320639672,99.65908668430596,46.88558000632127,15.24897826533283,2.001946474469868,0.0,0.0,0.0,0.0,0.0,0.0,0.0,0.0,0.0,0.0,0.0,0.0,26.475107580764007,66.31483841598526,99.89426961149454,123.2490266610354,136.75148253265644,141.971772424678,138.24290213376204,125.95716449337476,105.31118785247703,75.02881567173421,37.34749864095664,5.573706859108212,0.0,0.0,0.0,0.0,0.0,0.0,0.0,0.0,0.0,0.0,0.0,0.2747013698718884,27.044108897773494,64.4899217132106,96.89151054386566,116.28189308715012,129.78434895877115,134.8086530781356,136.1429627729636,119.63774783371376,99.63916681888836,71.04484258821209,36.18957614152005,5.770013919917246,0.0,0.0,0.0,0.0,0.0,0.0,0.0,0.0,0.0,0.0,0.0,1.0008125931589855,28.31962286080437,66.45234974499714,98.2656599695289,120.46217323148127,132.6103995428567,136.31967125650692,133.0618093962719,121.99278998711834,102.66152446378292,73.57659322516002,37.79890849437185,6.142708176117703,0.0,0.0,0.0,0.0,0.0,0.0,0.0,0.0,0.0,0.0,0.0,0.726111223287097,24.43396395176271,47.160281376193154,71.18203262907208,80.03319992568103,99.5607725098255,85.50891389846069,112.23880298367897,60.91784004042036,63.685094892708754,69.55310169895456,34.08963678072162,5.554108281842497,0.0,0.0,0.0,0.0,0.0,0.0,0.0,0.0,0.0,0.0,0.0,0.0,22.608725960836164,34.89446360122347,32.4607058506041,35.875677617116736,56.97306411142967,74.3027044484471,44.275435060310485,41.50818020802209,42.646504130192966,26.475107580764007,8.02674189884139,3.277460437500742,0.0,0.0,0.0,0.0,0.0,0.0,0.0,0.0,0.0,0.0,0.0,0.0,9.0670729346837,27.102904629570634,25.689879337527877,122.54251401501402,139.38122605593293,145.4847370775192,138.08579222748443,126.80118846840804,106.312000445636,76.0100296876275,37.58300285629711,6.162306753383415,0.0,0.0,0.0,0.0,0.0,0.0,0.0,0.0,0.0,0.0,0.0,2.217852112544615,31.263586196636084,72.04565518137107,107.72502573767878,131.92348547410103,146.1912497235406,150.64623123774365,145.81823417918824,132.15898968944148,107.21482015246642,56.69836274155778,31.008483404029903,6.633315184064339,0.0,0.0,0.0,0.0,0.0,0.0,0.0,0.0,0.0,0.0,0.0,2.3158449988731835,31.361900371116548,70.80933837287162,104.03535260129426,126.52648709853614,139.73432173486765,143.97371889914783,139.5971316940077,127.13468557007704,105.9981019212327,73.83169601776619,38.348311234115634,6.810023667607659,0.0,0.0,0.0,0.0,0.0,0.0,0.0,0.0,0.0,0.0,0.0,2.728057697756965,32.24480021252936,71.16243405180637,102.17091745583627,123.30782239283252,135.2205444888675,138.83182331618914,134.47483468831467,122.77801823035446,103.32883995527288,74.24358742849807,38.40742825406467,6.633315184064339,0.0,0.0,0.0,0.0,0.0,0.0,0.0,0.0,0.0,0.0,0.0,2.924364758565998,31.656200318254147,70.10282572685024,101.93541324049582,123.44533372184443,118.79404514683236,141.01015698605045,137.1437753661226,125.54527308264284,105.33078642974274,73.55699464789431,38.152325461458496,6.712030781279089,0.0,0.0,0.0,0.0,0.0,0.0,0.0,0.0,0.0,0.0,0.0,3.1007519539574218,30.65506643694327,67.59067366716802,69.25880175181697,62.154478137071706,69.92611724330693,31.4402946801794,98.0889514859856,122.3854041087364,100.95419922460256,71.6334424824873,35.973670503445305,6.829622244873373,0.0,0.0,0.0,0.0,0.0,0.0,0.0,0.0,0.0,0.0,0.0,3.0027590676288534,29.75256801826475,42.90160692279915,76.65774660185173,118.53894235422617,101.93541324049582,136.33926983377265,132.09987266949244,121.40419009284314,102.46553869112576,74.12599596490381,37.81850707163757,6.927936419353837,0.0,0.0,0.0,0.0,0.0,0.0,0.0,0.0,0.0,0.0,0.0,3.4933660755754894,30.28237218074281,65.13763862743484,77.57984359779596,94.36008119506964,41.42978589895924,89.17898845757949,112.80812558884035,94.49727123592965,54.9910375023774,35.6793705563077,16.681923422793208,6.378212391458164,0.0,0.0,0.0,0.0,0.0,0.0,0.0,0.0,0.0,0.0,0.0,2.924364758565998,5.141895582958717,20.66589650631533,26.88699899149589,33.24593409384024,63.25328361655927,93.7515614353768,55.63875441660166,52.361293979100914,31.61700316372272,26.435589138080683,15.935892334088502,6.927936419353837,0.0,0.0,0.0,0.0,0.0,0.0,0.0,0.0,0.0,0.0,0.0,1.884033722723689,10.813595328395497,69.4355102353603,73.85129459503192,87.88355462913101,93.26095442743018,87.96194893819386,98.99144990466412,88.41335879160907,82.761257623438,57.3068825012506,36.93528594207286,7.516536313629041,0.0,0.0,0.0,0.0,0.0,0.0,0.0,0.0,0.0,0.0,0.0,0.1963070608090337,1.825237990926548,7.418543427300474,11.441713665354026,11.853926364237807,18.91905282445164,23.354435761388974,54.461233339899344,47.98470677396072,36.36628462506337,23.531144244932293,6.731629358544804,0.0,0.0,0.0,0.0,0.0,0.0,0.0,0.0,0.0,0.0,0.0,0.0,4.749281461340649,34.71775511768015,72.63457636379817,101.1697835745254,121.10989014570552,133.0226122417405,136.77075982177024,132.80670660366573,122.16949847066168,102.58313015472004,74.57740581831901,39.52615359896984,7.654047642640935,0.0,0.0,0.0,0.0,0.0,0.0,0.0,0.0,0.0,0.0,0.0,5.161494160224431,34.73735369494586,70.43632282851928,99.1093626564103,119.10794367123567,108.54945113544636,135.73075007407985,130.5692559138554,119.79485773999131,100.11017524956924,22.490813209089985,38.937232416542734,7.967946167044251,0.0,0.0,0.0,0.0,0.0,0.0,0.0,0.0,0.0,0.0,0.0,5.299005489236323,35.895276194382454,74.85242847634278,106.64549754730504,128.6460250366003,141.34365408771947,144.95493291504113,124.17144494513154,98.30485712406032,108.45113696096588,77.58016488594787,33.579431195509265,7.9875447443099645,0.0,0.0,0.0,0.0,0.0,0.0,0.0,0.0,0.0,0.0,0.0,5.573706859108212,36.18957614152005,74.75411430186233,106.2728032911046,128.19461518318508,141.10814987237902,144.896137183244,141.14734702691044,128.92072640647217,108.09804128203116,78.10996904842592,24.88537380517792,8.14465465058757,0.0,0.0,0.0,0.0,0.0,0.0,0.0,0.0,0.0,0.0,0.0,5.8092110744486725,36.32708747053194,72.12404949043393,104.32997383658376,125.76085743256571,138.14490924743347,141.7166696320718,137.7522951258154,125.36856459909954,70.84853552740306,74.04760165584095,39.15313805461748,8.71365596759706,0.0,0.0,0.0,0.0,0.0,0.0,0.0,0.0,0.0,0.0,0.0,6.123109598851989,36.562591685872405,72.3595537057744,101.15050628541158,120.9331816621622,132.1981868439729,135.3776543951451,117.98921832633047,121.30587591836266,101.54312040702966,74.2831058711814,40.40905344038264,8.909963028406095,0.0,0.0,0.0,0.0,0.0,0.0,0.0,0.0,0.0,0.0,0.0,6.260620927863882,37.36709721822236,73.16438052627623,104.42796672291232,125.09386322922764,136.73188395539074,140.87264565703856,137.08497963432546,95.57679942630335,106.0177004984984,76.69694375638315,40.350257708585495,8.733254544862774,0.0,0.0,0.0,0.0,0.0,0.0,0.0,0.0,0.0,0.0,0.0,3.297059014766456,13.796755818758635,44.55013643018237,76.1867381711708,95.9102965279724,102.36722451664532,107.72502573767878,128.48891513032268,117.00800431043724,98.02983446603656,71.2212297836035,38.05401128697802,8.517670194939923,0.0,0.0,0.0,0.0,0.0,0.0,0.0,0.0,0.0,0.0,0.0,6.378212391458164,24.806658207963167,53.77431927114368,73.53707478247671,69.76900733702932,120.73687460135318,61.8402583245165,117.12559577403152,75.69613116322417,69.55310169895456,40.60536050119167,21.15650351426197,6.810023667607659,0.0,0.0,0.0,0.0,0.0,0.0,0.0,0.0,0.0,0.0,0.0,1.9036322999894024,12.246540485855872,58.346892248941,43.13711113813961,84.0762900291522,97.75513309616466,99.67868526157169,47.92591104216358,47.02309133533316,47.101485644396014,34.03084104892448,19.370462677866847,5.770013919917246,0.0,0.0,0.0,0.0,0.0,0.0,0.0,0.0,0.0,0.0,0.0,6.7904250903419445,17.937838808558368,51.7527742194081,71.82974954329633,47.55289549781122,108.2156327456254,114.69215931156404,88.72725731601238,77.9332605648826,51.163853036981,35.836480462585314,18.369650084707864,6.083912444320561,0.0,0.0,0.0,0.0,0.0,0.0,0.0,0.0,0.0,0.0,0.0,0.1963070608090337,18.2713359102274,4.337390050608765,6.672833626747662,25.631083605730726,51.73317564214239,66.74664969213475,52.7731853898328,47.47450118874837,54.00982348648414,43.80442662962956,24.84617665064649,7.143842057428584,0.0,0.0,0.0,0.0,0.0,0.0,0.0,0.0,0.0,0.0,0.0,0.0,21.96100904661192,23.21724572052898,22.255308993749523,87.53013766204437,73.85129459503192,43.35301677621435,55.26573887224931,36.09158325519149,31.5774847210394,29.55626095745571,7.516536313629041,4.121484412534018,0.0,0.0,0.0,0.0,0.0,0.0,0.0,0.0,0.0,0.0,0.0,1.94282945452083,5.966320980726279,14.758371257386194,55.481644510324045,125.62366739170572,136.0054514439517,139.89143164114526,120.14795341892606,125.8983687615776,106.312000445636,75.75492689502131,41.41018732169352,9.40057003635273,0.0,0.0,0.0,0.0,0.0,0.0,0.0,0.0,0.0,0.0,0.0,7.614850488109507,39.6241464852984,74.8521071881909,102.03372741497628,120.9331816621622,131.66838268149488,134.43563753378325,130.0002545968459,118.83324230136378,99.95338663144356,73.24277483533909,39.95764358696743,8.909963028406095,0.0,0.0,0.0,0.0,0.0,0.0,0.0,0.0,0.0,0.0,0.0,7.575332045426182,39.1727366318832,73.83169601776619,100.3264021757959,118.22472254167096,128.48891513032268,131.25616998261108,127.802001061567,117.59660420471243,99.5803710870912,73.41948331888241,40.42865201764835,9.224182840961308,0.0,0.0,0.0,0.0,0.0,0.0,0.0,0.0,0.0,0.0,0.0,8.105457496056143,39.52615359896984,74.57708453016711,101.71950760242107,120.54056754054412,131.05986292180205,133.86631492862185,135.67195434228267,119.40224361837326,101.4840033870806,75.02881567173421,41.351070301744485,9.577278519896051,0.0,0.0,0.0,0.0,0.0,0.0,0.0,0.0,0.0,0.0,0.0,8.262246114181853,39.31024796089508,73.59619180242574,99.95338663144356,118.81364372409806,128.95992356100362,131.6095869496977,118.95083376495806,117.1451943512972,98.95225275013269,72.45786788025485,40.0559577614479,9.7931841579708,0.0,0.0,0.0,0.0,0.0,0.0,0.0,0.0,0.0,0.0,0.0,8.340961711396604,39.09434232282034,71.00564543368066,102.4848159802396,121.42378867010883,117.8716268627362,136.20207979291266,131.76637556782345,120.28546474793798,101.87661750869869,72.73256925012674,40.25226482225693,9.85197988976794,0.0,0.0,0.0,0.0,0.0,0.0,0.0,0.0,0.0,0.0,0.0,7.614850488109507,32.97091143581645,62.213273868868846,88.9042870877076,63.86180337625207,68.61108483759273,118.1463282326081,116.36060868436488,106.78300887631691,78.85567884897874,71.67263963701873,35.24755928015821,10.067885527842686,0.0,0.0,0.0,0.0,0.0,0.0,0.0,0.0,0.0,0.0,0.0,9.24378141822702,34.972857910286315,57.81708808646295,79.18949723879965,81.62293370126713,99.128961233676,110.53147774449862,104.89897515359324,83.64447875300272,48.47531378190735,35.129967816563926,25.16007517504981,7.261433521022866,0.0,0.0,0.0,0.0,0.0,0.0,0.0,0.0,0.0,0.0,0.0,2.178333669861291,25.16007517504981,46.65007579098081,62.48797523874074,88.78605304780953,93.92826991892014,105.25207083252798,124.34783214052295,112.5922199507656,95.02739668655958,69.47470738989172,38.073609864243736,10.519295381257894,0.0,0.0,0.0,0.0,0.0,0.0,0.0,0.0,0.0,0.0,0.0,6.986732151150979,21.96100904661192,45.64926319782182,65.54953003816674,60.83944573135752,63.0177794012188,94.143854268843,89.9047783927147,101.73942746783868,82.09394213194804,70.49511856031641,39.21193378641463,10.892310925610248,0.0,0.0,0.0,0.0,0.0,0.0,0.0,0.0,0.0,0.0,0.0,9.45968705630177,39.05514516828891,73.1248620835929,100.56158510298448,93.869474187123,126.23218715139856,128.68522219113171,124.603256221281,113.67174814113936,49.88833907395013,71.43713542167826,39.44743800175508,10.774398173864068,0.0,0.0,0.0,0.0,0.0,0.0,0.0,0.0,0.0,0.0,0.0,9.184664398277985,38.701728201202265,72.10445091316822,59.269310533037135,101.36641192348633,130.03945175137733,133.25811645708094,124.52454062406626,97.3432416854328,76.50063669557412,57.65997818018534,31.224389042104654,8.183851805118998,0.0,0.0,0.0,0.0,0.0,0.0,0.0,0.0,0.0,0.0,0.0,5.632502590905353,1.4914196011056216,21.077787917047218,41.50818020802209,93.869474187123,63.94019768531493,55.6975501483988,85.86200957739543,86.8631434587063,45.23705049893804,30.63546785967756,21.84341758301764,11.382917933556886,0.0,0.0,0.0,0.0,0.0,0.0,0.0,0.0,0.0,0.0,0.0,10.224995434120292,43.76522947509813,81.25023944506667,109.90368069569196,129.5096475888993,140.49995140083809,142.85499355424272,137.5951852195378,125.78077729798332,106.1548905393584,78.54178032457541,42.96040265459629,11.52010797441688,0.0,0.0,0.0,0.0,0.0,0.0,0.0,0.0,0.0,0.0,0.0,10.244594011386006,42.0971013904492,75.65693400869274,102.22971318763342,120.08915768712892,130.09824748317448,132.74791087186858,129.56844332069642,118.02841548086192,100.48319079392162,74.26350729391568,41.998787215968726,11.480910819885452,0.0,0.0,0.0,0.0,0.0,0.0,0.0,0.0,0.0,0.0,0.0,5.8092110744486725,41.44938447622494,74.75411430186233,101.15050628541158,119.65734641097946,129.90194042236544,132.55128252290768,93.3001515819616,118.83324230136378,99.992583785975,73.94928748136047,41.56697593981923,11.324122201759744,0.0,0.0,0.0,0.0,0.0,0.0,0.0,0.0,0.0,0.0,0.0,10.224995434120292,40.11475349324503,72.45786788025485,98.03015575418844,115.7716875019378,125.64326596897143,128.29260806951365,110.9828875979138,115.81088465646924,23.84504276933561,37.524207124499966,41.2334788381502,12.10902915684398,0.0,0.0,0.0,0.0,0.0,0.0,0.0,0.0,0.0,0.0,0.0,10.696003864801211,32.794524240425034,71.65304105975301,96.91110912113136,114.24074945814884,124.1319265024482,110.04087073655197,83.78166879386269,32.42150869607268,87.2946334467039,56.63956700976063,40.664156232988816,12.344533372184442,0.0,0.0,0.0,0.0,0.0,0.0,0.0,0.0,0.0,0.0,0.0,10.59768969032075,39.40824084722365,71.41753684441254,96.89183183201756,114.69215931156404,124.77964341667244,69.55310169895456,126.01628151332378,113.82853675926506,96.53841486493091,71.43713542167826,34.77655084947728,12.05023342504684,0.0,0.0,0.0,0.0,0.0,0.0,0.0,0.0,0.0,0.0,0.0,10.460499649460754,40.19314780230789,74.06720023310666,100.77781202921112,119.24545500024756,129.80394753603687,132.7475895837167,129.48972772348168,118.5977380860233,100.18889084678402,72.0848523359025,41.41018732169352,12.148226311375408,0.0,0.0,0.0,0.0,0.0,0.0,0.0,0.0,0.0,0.0,0.0,10.578091113055036,39.74173794889268,71.47665386436158,99.75707957063452,119.06874651670424,129.5096475888993,132.33569817298482,128.5477108621198,117.57700562744672,96.28331207232476,71.16243405180637,41.03717177734117,12.246540485855872,0.0,0.0,0.0,0.0,0.0,0.0,0.0,0.0,0.0,0.0,0.0,6.594118029532911,38.42702683133038,65.13731733928294,87.35375046665295,113.84813533653076,114.7708749087788,105.03648648260514,115.86968038826636,98.16734579504843,87.62845183652483,63.70469346997447,40.38945486311693,12.403329103981584,0.0,0.0,0.0,0.0,0.0,0.0,0.0,0.0,0.0,0.0,0.0,10.833193905661211,33.599029772774976,70.3383299421907,94.8898853575477,111.8269115729471,121.22748160929982,124.48534346953484,121.26667876383124,66.92335817567808,77.9335818530345,69.57270027622029,33.79533683358401,12.933133266459643,0.0,0.0,0.0,0.0,0.0,0.0,0.0,0.0,0.0,0.0,0.0,11.127815140950707,38.62333389213941,69.12129042280507,93.7515614353768,111.1399975041914,121.05077312575648,124.406949160472,120.79567033315033,110.2567763746267,81.36783090866095,64.45040327052729,30.870972075018013,11.6968164579602,0.0,0.0,0.0,0.0,0.0,0.0,0.0,0.0,0.0,0.0,0.0,9.557679942630337,39.38864226995794,61.80106116998508,80.60252253084242,101.189703439943,87.21623913764105,90.90591227402555,96.8131162348028,86.17622938995063,85.35180399218308,62.90018793762452,24.551555415356997,12.030634847781126,0.0,0.0,0.0,0.0,0.0,0.0,0.0,0.0,0.0,0.0,0.0,9.145467243746555,37.64179858809425,60.97663577221751,83.11435330237273,101.38601050075204,109.76616936668007,118.2639196962024,110.43348485817005,101.07211197634874,97.65714020983609,73.00727061999864,42.52859137844679,12.069832002312555,0.0,0.0,0.0,0.0,0.0,0.0,0.0,0.0,0.0,0.0,0.0,10.048286950576973,30.812176343220877,61.05535136943225,82.72206046890658,96.32250922685616,105.114880791668,113.04362980418082,105.89978774675222,104.42796672291232,85.78361526833257,56.58077127796349,37.77930991710614,12.285737640387302,0.0,0.0,0.0,0.0,0.0,0.0,0.0,0.0,0.0,0.0,0.0,10.067885527842686,37.95601840064946,54.73593470977123,80.91642105524575,91.43603772465552,78.71848880811874,41.8220787324254,76.0296282648932,95.40009094276006,76.71654233364887,59.99542175632424,37.54380570176568,12.462124835778724,0.0,0.0,0.0,0.0,0.0,0.0,0.0,0.0,0.0,0.0,0.0,10.401703917663612,36.9944029620219,65.37282155462341,82.07434355468234,100.85588505012208,105.19359638888274,114.02484382007408,102.72032019558006,91.02350373761983,72.8109635591896,57.42447396484487,36.60178884040383,4.965187099415397,0.0,0.0,0.0,0.0,0.0,0.0,0.0,0.0,0.0,0.0,0.0,9.498884210833197,39.64374506256412,70.71102419839116,95.3216966336972,112.297920003628,121.9339942553212,124.7208476848753,121.48258440190598,111.45389602859473,95.12538957288815,71.41753684441254,41.88119575237445,13.443660139823896,0.0,0.0,0.0,0.0,0.0,0.0,0.0,0.0,0.0,0.0,0.0,9.753987003439372,39.40824084722365,69.69061302796646,94.22289115420963,111.25758896778568,120.69767744682174,58.83749925688765,67.08046808195567,83.27146320865036,94.06578124793202,69.76900733702932,41.09596750913831,12.482044701196337,0.0,0.0,0.0,0.0,0.0,0.0,0.0,0.0,0.0,0.0,0.0,11.422115088088312,21.548796347728132,68.15967498417751,92.22062339158786,109.2167666269363,92.2598205461193,86.09751379273588,53.85271358020654,13.011848863674398,43.78482805236385,48.18101383476974,34.01124247165876,12.73714749380251,0.0,0.0,0.0,0.0,0.0,0.0,0.0,0.0,0.0,0.0,0.0,10.49969680399218,40.42865201764835,72.88935786825246,98.57955849393224,116.49779872522488,126.74239273661088,129.78434895877115,108.74543690810349,117.36109998937197,99.36446544901646,74.77371287912804,44.079127999501445,13.600448757949604,0.0,0.0,0.0,0.0,0.0,0.0,0.0,0.0,0.0,0.0,0.0,10.990303811938816,39.0352253028713,69.18040744275412,93.24135585016448,110.15846220014625,119.7556605854599,123.09191675475778,120.38377892241844,110.74738338257332,94.53678967861296,51.90988412568571,35.40466918643581,14.091055765896238,0.0,0.0,0.0,0.0,0.0,0.0,0.0,0.0,0.0,0.0,0.0,10.735201019332642,39.545752176235546,44.80523922278855,94.7327754512701,61.58515553191031,122.40500268600212,123.68083793718488,94.37967977233536,111.49309318312616,94.870286780282,71.96726087230822,42.80361403647057,13.8950699932391,0.0,0.0,0.0,0.0,0.0,0.0,0.0,0.0,0.0,0.0,0.0,10.735201019332642,39.13353947735177,69.6122187189036,94.22289115420963,110.13886362288052,90.31699109159848,124.50494204680054,119.99116480080036,110.49228058996718,94.39927834960106,70.94652841373161,42.43059849211821,14.287362826705277,0.0,0.0,0.0,0.0,0.0,0.0,0.0,0.0,0.0,0.0,0.0,11.088617986419283,28.00572433640105,68.90570607288223,92.59363893594023,109.09885387519012,118.81364372409806,121.71808861724644,118.04801405812762,108.58864828997775,68.33638346772084,48.43611662737592,40.350257708585495,13.109841750002968,0.0,0.0,0.0,0.0,0.0,0.0,0.0,0.0,0.0,0.0,0.0,11.088617986419283,38.54461829492466,68.14007640691182,92.45644889508024,109.510745285922,65.07852160748581,86.90234061323774,19.076162730729248,105.01688790533942,93.94786849618586,73.18397910354194,43.5689224142891,13.502455871621034,0.0,0.0,0.0,0.0,0.0,0.0,0.0,0.0,0.0,0.0,0.0,10.85311377107882,38.701728201202265,69.41591165809457,93.79075858990824,111.1203989269257,83.70327448479985,125.64326596897143,99.65908668430596,47.33698985973648,5.043902696630148,7.7128433744380755,7.12424348016287,4.180280144331159,0.0,0.0,0.0,0.0,0.0,0.0,0.0,0.0,0.0,0.0,0.0,10.85311377107882,38.740925355733694,68.55228910579558,93.12344309841828,110.43348485817005,103.64273847967618,53.87231215747224,80.60252253084242,112.1408100973504,94.5955854104101,71.57464675069015,36.93528594207286,15.033072627258084,0.0,0.0,0.0,0.0,0.0,0.0,0.0,0.0,0.0,0.0,0.0,6.182226618801026,37.89722266885232,67.35516945182756,74.40069733477569,109.37355524506202,76.87365223992647,48.396919472844495,73.08566492906148,93.33934873649304,61.80106116998508,16.91742763813367,1.079528190373737,13.914668570504816,0.0,0.0,0.0,0.0,0.0,0.0,0.0,0.0,0.0,0.0,0.0,10.85311377107882,38.28951550231849,68.7289975893389,93.7123642808454,109.43235097685915,85.94072517461018,61.31045416203843,90.57209388420466,94.63478256494152,94.67397971947295,69.4355102353603,18.40884723923929,8.360560288662318,0.0,0.0,0.0,0.0,0.0,0.0,0.0,0.0,0.0,0.0,0.0,10.833193905661211,38.40742825406467,68.45429621946703,93.02545021208972,110.31557210642384,80.52380693362767,28.00572433640105,107.35201019332642,97.26484737636991,71.0644411654778,8.419356020459459,14.758371257386194,10.6764052875355,0.0,0.0,0.0,0.0,0.0,0.0,0.0,0.0,0.0,0.0,0.0,6.692432204013375,24.21805831368796,20.214486652900128,22.000206201143342,36.60178884040383,52.08627132107712,100.75789216379351,88.39376021434335,26.76940752790161,5.102698428427289,22.8050330216452,16.544412093781315,9.969892641514116,0.0,0.0,0.0,0.0,0.0,0.0,0.0,0.0,0.0,0.0,0.0,10.558492535789322,38.348311234115634,68.59148626032702,93.63396997178252,109.0792552979244,97.85312598249322,122.97432529116352,119.22585642298182,109.5110665740739,93.7123642808454,72.71297067286103,43.8632223614267,14.38567700118574,0.1375113290118927,0.0,0.0,0.0,0.0,0.0,0.0,0.0,0.0,0.0,0.0,9.282978572758449,38.348311234115634,69.76900733702932,95.3216966336972,113.80925947015125,90.69000663595082,113.53423681212746,87.019932076832,102.3476259393796,91.57322776551553,73.73338184328573,43.431411085277205,15.916293756822787,0.1375113290118927,0.0,0.0,0.0,0.0,0.0,0.0,0.0,0.0,0.0,0.0,8.635261658534205,38.093208441509454,67.94409063425466,85.66602380473829,109.15764960698726,105.36998358427418,100.95419922460256,112.90611847516892,77.65855919501072,81.09312953878906,72.69337209559532,44.21663932851334,14.366078423920024,0.1571099062776063,0.0,0.0,0.0,0.0,0.0,0.0,0.0,0.0,0.0,0.0,10.303389743183148,39.4866351562865,70.7701412183402,95.22370374736862,101.73942746783868,107.1557031325174,131.4132798888887,127.01677281833088,117.20431137124628,100.75789216379351,74.47909164383853,45.3154448080009,14.110975631313847,0.2942999471376021,0.0,0.0,0.0,0.0,0.0,0.0,0.0,0.0,0.0,0.0,9.027875780152277,31.891704533594613,57.50318956205963,83.46777026945938,98.22614152684558,106.9205202053288,112.94563691785226,120.38345763426656,110.33517068368955,94.7523740285358,72.18316651038297,43.92201809322384,14.56206419657716,0.117912751746179,0.0,0.0,0.0,0.0,0.0,0.0,0.0,0.0,0.0,0.0,9.577278519896051,35.3850706091701,57.09097686317585,55.08903038870598,46.76798854272698,76.3435267892965,104.29077668205232,76.3435267892965,96.75432050300569,78.24748037743782,61.01615421490083,15.268576842598543,12.50164327846205,0.0,0.0,0.0,0.0,0.0,0.0,0.0,0.0,0.0,0.0,0.0,9.282978572758449,29.30115816484954,69.20000602001983,33.9129282971783,12.56043901025919,9.204262975543696,37.64179858809425,70.7701412183402,120.03036195533178,86.76482928422584,55.99185009553639,39.89884785517029,16.132199394897533,0.3138985244033158,0.0,0.0,0.0,0.0,0.0,0.0,0.0,0.0,0.0,0.0,0.0,8.83156871934324,35.36547203190438,54.24532770182459,97.87272455975894,113.71094529567078,130.27495596671778,108.45113696096588,95.67479231263194,52.51808259722662,65.25523009102912,33.83453398811544,14.50326846478002,0.1571099062776063,0.0,0.0,0.0,0.0,0.0,0.0,0.0,0.0,0.0,0.0,8.733254544862774,37.79890849437185,57.40487538757916,92.5544417814088,109.23604391605014,119.28433086662707,108.90286810253298,103.3879569752219,111.37550171953188,94.36008119506964,72.00645802683964,44.19704075124763,14.974276895460942,0.2942999471376021,0.0,0.0,0.0,0.0,0.0,0.0,0.0,0.0,0.0,0.0,10.14660112505744,37.42621423817139,67.72786370802801,92.29933898880265,110.00167358202054,120.95278023942792,124.21064209966296,73.14478194901052,113.7305438729365,96.24411491779333,69.80820449156076,45.021144860863295,14.993875472726655,0.4710084306809222,0.0,0.0,0.0,0.0,0.0,0.0,0.0,0.0,0.0,0.0,9.45968705630177,37.24950575462808,68.19919342686084,80.28830271828723,61.38884847110129,24.512358260825565,123.50830619961624,121.87519852352408,117.36109998937197,82.25105203822565,24.43396395176271,35.129967816563926,15.131386801738548,0.4710084306809222,0.0,0.0,0.0,0.0,0.0,0.0,0.0,0.0,0.0,0.0,9.832381312502225,36.73930016941573,67.29637372003043,92.59363893594023,111.5518889149233,122.05190700706736,124.8577164375834,19.743478222219203,14.424874155717166,44.4521435438538,57.28728392398488,31.53828756650797,10.637208133004073,0.0,0.0,0.0,0.0,0.0,0.0,0.0,0.0,0.0,0.0,0.0,8.438954597725171,36.79809590121287,67.57107508990231,93.04504878935543,111.19879323598856,26.12169061367737,23.3936329159204,22.35362316822999,41.56697593981923,54.00950219833225,57.64037960291962,43.88282093869241,15.111788224472834,0.0,0.0,0.0,0.0,0.0,0.0,0.0,0.0,0.0,0.0,0.0,6.005518135257707,33.71694252452116,64.58791459953916,92.53484320414309,78.14916620295735,33.9129282971783,91.04342360303748,94.1441755569949,74.47909164383853,76.44184096377698,36.97480438475619,44.53053785291665,8.497750329522313,0.0,0.0,0.0,0.0,0.0,0.0,0.0,0.0,0.0,0.0,0.0,10.538893958523609,21.15650351426197,54.30412343362174,72.16356793311725,4.101885835268304,9.45968705630177,13.502455871621034,29.045734084091464,61.66387112912507,92.59396022409211,59.44601901658046,2.041143629001295,15.288496708016156,0.0,0.0,0.0,0.0,0.0,0.0,0.0,0.0,0.0,0.0,0.0,9.184664398277985,36.36628462506337,66.31483841598526,91.21981079842888,108.01964697296827,122.83681396215162,126.38897576952424,118.16592680987382,109.02045956612726,80.72011399443672,70.98572556826305,43.45100966254292,16.838712040918917,0.0,0.0,0.0,0.0,0.0,0.0,0.0,0.0,0.0,0.0,0.0,9.675592694376515,34.99245648755203,63.56750342911448,90.02269114446086,109.0596567206587,94.49727123592965,103.15213147172956,121.67889146271504,111.25758896778568,94.26176702058918,69.2979989063484,42.56810982113011,14.581984061994772,0.0,0.0,0.0,0.0,0.0,0.0,0.0,0.0,0.0,0.0,0.0,9.538081365364624,35.28675643468964,64.1757019006554,88.4724758115581,94.77197260580152,108.78463406263492,104.8597779990618,103.5251470160819,92.98625305755829,80.97521678704288,62.44877808420932,42.35220418305536,15.916293756822787,0.0,0.0,0.0,0.0,0.0,0.0,0.0,0.0,0.0,0.0,0.0,9.145467243746555,34.59984236593397,62.802195051295946,86.50972649161967,104.93817230812468,87.90315320639672,73.34108900981956,117.85202828547052,17.957437385824083,28.378739880753407,31.891704533594613,44.11832515403288,14.817488277335231,0.0,0.0,0.0,0.0,0.0,0.0,0.0,0.0,0.0,0.0,0.0,9.204262975543696,34.77655084947728,63.37119636830544,87.21623913764105,104.6830695155185,115.12397058771354,78.03157473936307,73.24277483533909,109.5110665740739,92.8487417285464,70.94652841373161,44.1575223085643,16.819113463653203,0.117912751746179,0.0,0.0,0.0,0.0,0.0,0.0,0.0,0.0,0.0,0.0,8.674458813065634,35.32627487737296,65.19643435923199,90.14060389620704,107.9213327984878,118.16592680987382,110.00167358202054,104.01575402402854,63.80300764445493,82.78085620070372,65.92254558251908,41.58657451708495,16.46601778471846,0.117912751746179,0.0,0.0,0.0,0.0,0.0,0.0,0.0,0.0,0.0,0.0,8.340961711396604,33.481438309180696,52.83230240978184,80.03319992568103,98.89345701833554,95.22370374736862,98.18694437231414,71.51585101889302,87.05945051951535,73.34108900981956,64.0581104370611,41.5277787852878,5.730816765385818,0.0,0.0,0.0,0.0,0.0,0.0,0.0,0.0,0.0,0.0,0.0,2.11953793806415,11.245406604544993,31.53828756650797,36.523394531340976,74.65580012738187,104.13366677577471,97.16653320188944,96.6364077512595,87.86395605186529,67.45316233815613,46.88558000632127,35.75776486537056,13.75755866422721,0.0,0.0,0.0,0.0,0.0,0.0,0.0,0.0,0.0,0.0,0.0,8.596064504002777,21.96100904661192,34.01124247165876,58.87701769957096,89.41449267291996,90.12100531894134,84.15468433821505,104.97736946265609,103.6819356342076,77.61936204047929,61.68346970639079,31.891704533594613,11.324122201759744,0.0,0.0,0.0,0.0,0.0,0.0,0.0,0.0,0.0,0.0,0.0,7.339827830085721,33.55983261824355,61.7030682836565,85.86200957739543,78.40426899556353,91.12181791210033,39.6241464852984,112.67093554798036,100.01218236324073,72.63457636379817,18.605154300048323,8.203450382384712,0.0,0.0,0.0,0.0,0.0,0.0,0.0,0.0,0.0,0.0,0.0,0.0,8.537268772205637,33.599029772774976,61.76186401545364,86.60771937794824,105.68388210867748,65.03932445295439,106.2728032911046,107.31313432694692,68.4147777767837,85.46971674392925,55.71714872566452,37.22990717736236,10.696003864801211,0.0,0.0,0.0,0.0,0.0,0.0,0.0,0.0,0.0,0.0,0.0,8.02674189884139,34.07003820345591,64.25441749787015,78.9343944461935,91.57322776551553,96.69552477120853,78.91447458077587,74.97001993993707,93.3001515819616,94.69357829673866,64.07770901432683,41.78288157789397,16.34810503297228,0.117912751746179,0.0,0.0,0.0,0.0,0.0,0.0,0.0,0.0,0.0,0.0,8.262246114181853,33.69734394725545,63.17488930749641,88.37416163707765,106.52790608371076,117.4006184320553,106.80260745358268,120.1871505734575,110.6885876507762,95.34129521096293,72.55586076658342,44.25583648304477,15.01347404999237,0.0,0.0,0.0,0.0,0.0,0.0,0.0,0.0,0.0,0.0,0.0,8.125056073321856,33.55983261824355,55.20694314045217,76.1867381711708,70.98572556826305,29.20284399036907,19.311666946069707,47.55289549781122,93.49645864277063,68.51309195126416,56.38446421715447,43.96153653590717,12.089430579578268,0.0,0.0,0.0,0.0,0.0,0.0,0.0,0.0,0.0,0.0,0.0,6.986732151150979,23.648735708526576,64.31321322966728,36.58219026313812,86.7256321296944,86.21542654448207,20.29288096196298,29.517063802924284,56.325668485357326,54.677138977974096,43.62771814608623,24.31605120001653,4.749281461340649,0.0,0.0,0.0,0.0,0.0,0.0,0.0,0.0,0.0,0.0,0.0,3.5913589619040582,25.0029652687722,9.0670729346837,24.33564977728225,29.20284399036907,55.40325020126119,57.87588381826008,64.25441749787015,67.90457219157135,68.65028199212415,8.635261658534205,21.72550483127146,13.522054448886747,0.0,0.0,0.0,0.0,0.0,0.0,0.0,0.0,0.0,0.0,0.0,2.6297435232764994,19.8806682630792,30.007670810870923,50.084646134759154,114.53537069343832,96.24411491779333,125.48615606269382,82.87917037518417,52.02747558927999,90.9454307167089,73.94928748136047,44.824837800054254,15.621993809685184,0.0,0.0,0.0,0.0,0.0,0.0,0.0,0.0,0.0,0.0,0.0,6.5745194522671975,34.34473957332779,66.94295675294379,96.32250922685616,115.86968038826636,50.94826868705814,105.84099201495508,124.5833363558634,114.53504940528644,99.0110484819298,75.42142979335229,34.207549532467795,14.3265599812367,0.0,0.0,0.0,0.0,0.0,0.0,0.0,0.0,0.0,0.0,0.0,7.143842057428584,33.79533683358401,64.82341881487963,90.53289672967324,108.54945113544636,119.42184219563896,85.78361526833257,121.28627734109696,75.16600571259421,96.4796191331338,72.77176640465817,44.09872657676716,15.896695179557074,0.0,0.0,0.0,0.0,0.0,0.0,0.0,0.0,0.0,0.0,0.0,7.536134890894756,32.8925171267536,53.59761078760035,80.52380693362767,94.86996549213008,106.03729907576414,120.30506332520368,117.4006184320553,54.029422063749855,70.61303131206259,71.4962524416273,43.372615353480064,13.835952973290066,0.0,0.0,0.0,0.0,0.0,0.0,0.0,0.0,0.0,0.0,0.0,7.261433521022866,32.34311438700982,61.879455479047934,87.33415188938723,105.58588922234892,116.43900299342776,120.1874718616094,119.2059365575642,110.00167358202054,94.65438114220724,72.10445091316822,43.51012668249196,15.445285326141864,0.0,0.0,0.0,0.0,0.0,0.0,0.0,0.0,0.0,0.0,0.0,6.476526565938629,32.57861860235028,63.86180337625207,89.9243769699804,80.2687041410215,43.29422104441721,125.25065184735335,120.95278023942792,116.18357891266966,100.13009511498689,76.28473105749937,45.021144860863295,14.38567700118574,0.0,0.0,0.0,0.0,0.0,0.0,0.0,0.0,0.0,0.0,0.0,5.828809651714386,32.44110727333839,59.56361048017474,62.27206960066599,29.026456794977648,74.06720023310666,106.54750466097646,96.49921771039948,79.81729428760629,79.4054028768744,54.00982348648414,36.523394531340976,14.248165672173846,0.0,0.0,0.0,0.0,0.0,0.0,0.0,0.0,0.0,0.0,0.0,5.436195530096319,26.533903312561147,54.93224177058027,82.42776052176896,91.02382502577176,106.21400755930745,123.17031106382062,103.19132862626098,95.02739668655958,87.86395605186529,72.00645802683964,37.602601433562825,13.541653026152462,0.0,0.0,0.0,0.0,0.0,0.0,0.0,0.0,0.0,0.0,0.0,5.632502590905353,32.3235158097441,64.39160753873014,90.3757868233956,108.72583833083776,119.50055779285374,86.11711237000159,15.60239523241947,53.91150931200367,92.27974041153692,76.10802257395605,39.42783942448937,13.914668570504816,0.0,0.0,0.0,0.0,0.0,0.0,0.0,0.0,0.0,0.0,0.0,6.2998180823953085,25.5918864511993,53.048208047856576,69.63181729616933,95.73358804442908,60.58434293875134,50.04544898022772,70.88773268193448,78.62017463363827,66.94295675294379,44.49134069838523,20.096573901153945,8.14465465058757,0.0,0.0,0.0,0.0,0.0,0.0,0.0,0.0,0.0,0.0,0.0,3.1007519539574218,22.01980477840906,24.178861159156536,25.49357227671884,73.34108900981956,62.56636954780359,63.959796262580646,96.10660358878144,90.47410099787608,86.25462369901348,50.86955308984339,21.254496400590536,13.875471415973388,0.0,0.0,0.0,0.0,0.0,0.0,0.0,0.0,0.0,0.0,0.0,5.8484082289801,31.63660174098844,46.53248432738652,46.453768730171774,109.9820750047548,90.00309256719517,89.39457280750234,122.16949847066168,112.1408100973504,96.73472192573996,51.26216721146145,32.559020025084564,4.513777246000188,0.0,0.0,0.0,0.0,0.0,0.0,0.0,0.0,0.0,0.0,0.0,5.730816765385818,31.656200318254147,62.62548656775263,88.6096658524181,107.03811166892312,117.7145169564586,121.52178155643742,118.754526704149,43.8632223614267,96.12620216604716,71.47665386436158,42.70529986199011,13.85555155055578,0.0,0.0,0.0,0.0,0.0,0.0,0.0,0.0,0.0,0.0,0.0,5.299005489236323,31.322381928433224,62.68428229954977,88.43327865702668,106.5867018155079,117.36109998937197,93.06464736662116,123.97513788432248,109.5110665740739,94.43847550413248,71.84934812056204,42.646504130192966,11.932320673300662,0.0,0.0,0.0,0.0,0.0,0.0,0.0,0.0,0.0,0.0,0.0,4.945588522149683,24.689066744368883,62.52717239327217,88.64886300694953,107.39152863600977,118.02841548086192,121.79648292630932,119.0295493621728,109.76616936668007,69.90651866604121,71.24114964902111,41.68488869156541,13.639967200632926,0.0,0.0,0.0,0.0,0.0,0.0,0.0,0.0,0.0,0.0,0.0,2.963561913097426,16.603207825578455,53.49929661311989,50.339748927365335,77.24634649612693,96.02788799156669,40.9391788910126,37.5634042790314,48.396919472844495,83.03595899330989,73.14478194901052,42.48939422391537,13.8950699932391,0.0,0.0,0.0,0.0,0.0,0.0,0.0,0.0,0.0,0.0,0.0,5.141895582958717,30.61586928241184,62.546770970537885,89.41449267291996,107.39152863600977,94.04618267066633,123.97513788432248,85.46939545577736,65.58872719269816,76.99124370352077,71.8101509660306,41.88119575237445,12.20702204317255,0.0,0.0,0.0,0.0,0.0,0.0,0.0,0.0,0.0,0.0,0.0,5.181092737490145,30.59627070514613,62.68428229954977,89.02155726314999,107.6071129859326,91.84792913538745,91.29820510749175,58.11138803360055,40.58576192392596,48.29860529836404,62.74307803134691,41.21388026088448,13.227754501749144,0.0,0.0,0.0,0.0,0.0,0.0,0.0,0.0,0.0,0.0,0.
...